/*--------------------------------*- C++ -*----------------------------------*\
| =========                 |                                                 |
| \\      /  F ield         | OpenFOAM: The Open Source CFD Toolbox           |
|  \\    /   O peration     | Version:  4.0                                   |
|   \\  /    A nd           | Web:      www.OpenFOAM.org                      |
|    \\/     M anipulation  |                                                 |
\*---------------------------------------------------------------------------*/
FoamFile
{
    version     2.0;
    format      ascii;
    class       dictionary;
    location    "system";
    object      setFieldsDict;
}
// * * * * * * * * * * * * * * * * * * * * * * * * * * * * * * * * * * * * * //

ymax 160;
zmax 160;

forty_of_ymax #calc "0.025*($ymax)";
forty_of_zmax #calc "0.025*($zmax)";

y_0 #calc "0*($forty_of_ymax)"; 
y_1 #calc "1*($forty_of_ymax)"; 
y_2 #calc "2*($forty_of_ymax)"; 
y_3 #calc "3*($forty_of_ymax)"; 
y_4 #calc "4*($forty_of_ymax)"; 
y_5 #calc "5*($forty_of_ymax)"; 
y_6 #calc "6*($forty_of_ymax)"; 
y_7 #calc "7*($forty_of_ymax)"; 
y_8 #calc "8*($forty_of_ymax)"; 
y_9 #calc "9*($forty_of_ymax)"; 
y_10 #calc "10*($forty_of_ymax)"; 
y_11 #calc "11*($forty_of_ymax)"; 
y_12 #calc "12*($forty_of_ymax)"; 
y_13 #calc "13*($forty_of_ymax)"; 
y_14 #calc "14*($forty_of_ymax)"; 
y_15 #calc "15*($forty_of_ymax)"; 
y_16 #calc "16*($forty_of_ymax)"; 
y_17 #calc "17*($forty_of_ymax)"; 
y_18 #calc "18*($forty_of_ymax)"; 
y_19 #calc "19*($forty_of_ymax)"; 
y_20 #calc "20*($forty_of_ymax)"; 
y_21 #calc "21*($forty_of_ymax)"; 
y_22 #calc "22*($forty_of_ymax)"; 
y_23 #calc "23*($forty_of_ymax)"; 
y_24 #calc "24*($forty_of_ymax)"; 
y_25 #calc "25*($forty_of_ymax)"; 
y_26 #calc "26*($forty_of_ymax)"; 
y_27 #calc "27*($forty_of_ymax)"; 
y_28 #calc "28*($forty_of_ymax)"; 
y_29 #calc "29*($forty_of_ymax)"; 
y_30 #calc "30*($forty_of_ymax)"; 
y_31 #calc "31*($forty_of_ymax)"; 
y_32 #calc "32*($forty_of_ymax)"; 
y_33 #calc "33*($forty_of_ymax)"; 
y_34 #calc "34*($forty_of_ymax)"; 
y_35 #calc "35*($forty_of_ymax)"; 
y_36 #calc "36*($forty_of_ymax)"; 
y_37 #calc "37*($forty_of_ymax)"; 
y_38 #calc "38*($forty_of_ymax)"; 
y_39 #calc "39*($forty_of_ymax)"; 
y_40 #calc "40*($forty_of_ymax)"; 

z_0 #calc "0*($forty_of_zmax)"; 
z_1 #calc "1*($forty_of_zmax)"; 
z_2 #calc "2*($forty_of_zmax)"; 
z_3 #calc "3*($forty_of_zmax)"; 
z_4 #calc "4*($forty_of_zmax)"; 
z_5 #calc "5*($forty_of_zmax)"; 
z_6 #calc "6*($forty_of_zmax)"; 
z_7 #calc "7*($forty_of_zmax)"; 
z_8 #calc "8*($forty_of_zmax)"; 
z_9 #calc "9*($forty_of_zmax)"; 
z_10 #calc "10*($forty_of_zmax)"; 
z_11 #calc "11*($forty_of_zmax)"; 
z_12 #calc "12*($forty_of_zmax)"; 
z_13 #calc "13*($forty_of_zmax)"; 
z_14 #calc "14*($forty_of_zmax)"; 
z_15 #calc "15*($forty_of_zmax)"; 
z_16 #calc "16*($forty_of_zmax)"; 
z_17 #calc "17*($forty_of_zmax)"; 
z_18 #calc "18*($forty_of_zmax)"; 
z_19 #calc "19*($forty_of_zmax)"; 
z_20 #calc "20*($forty_of_zmax)"; 
z_21 #calc "21*($forty_of_zmax)"; 
z_22 #calc "22*($forty_of_zmax)"; 
z_23 #calc "23*($forty_of_zmax)"; 
z_24 #calc "24*($forty_of_zmax)"; 
z_25 #calc "25*($forty_of_zmax)"; 
z_26 #calc "26*($forty_of_zmax)"; 
z_27 #calc "27*($forty_of_zmax)"; 
z_28 #calc "28*($forty_of_zmax)"; 
z_29 #calc "29*($forty_of_zmax)"; 
z_30 #calc "30*($forty_of_zmax)"; 
z_31 #calc "31*($forty_of_zmax)"; 
z_32 #calc "32*($forty_of_zmax)"; 
z_33 #calc "33*($forty_of_zmax)"; 
z_34 #calc "34*($forty_of_zmax)"; 
z_35 #calc "35*($forty_of_zmax)"; 
z_36 #calc "36*($forty_of_zmax)"; 
z_37 #calc "37*($forty_of_zmax)"; 
z_38 #calc "38*($forty_of_zmax)"; 
z_39 #calc "39*($forty_of_zmax)"; 
z_40 #calc "40*($forty_of_zmax)";


defaultFieldValues
(
	volScalarFieldValue phi_alpha 0.0
	volScalarFieldValue phi_beta 0.0
	volScalarFieldValue phi_liq 0.0
	volScalarFieldValue T 1.0
	volScalarFieldValue mu 1.0

);

regions
(

// random alpha and beta phase region starts

	boxToCell { box (-6 $y_0 $z_0) (64 $y_1 $z_1); fieldValues (
	volScalarFieldValue phi_alpha 0.0
	volScalarFieldValue phi_beta 1.0 ); }
	boxToCell { box (-6 $y_0 $z_1) (64 $y_1 $z_2); fieldValues (
	volScalarFieldValue phi_alpha 1.0
	volScalarFieldValue phi_beta 0.0 ); }
	boxToCell { box (-6 $y_0 $z_2) (64 $y_1 $z_3); fieldValues (
	volScalarFieldValue phi_alpha 0.0
	volScalarFieldValue phi_beta 1.0 ); }
	boxToCell { box (-6 $y_0 $z_3) (64 $y_1 $z_4); fieldValues (
	volScalarFieldValue phi_alpha 1.0
	volScalarFieldValue phi_beta 0.0 ); }
	boxToCell { box (-6 $y_0 $z_4) (64 $y_1 $z_5); fieldValues (
	volScalarFieldValue phi_alpha 1.0
	volScalarFieldValue phi_beta 0.0 ); }
	boxToCell { box (-6 $y_0 $z_5) (64 $y_1 $z_6); fieldValues (
	volScalarFieldValue phi_alpha 0.0
	volScalarFieldValue phi_beta 1.0 ); }
	boxToCell { box (-6 $y_0 $z_6) (64 $y_1 $z_7); fieldValues (
	volScalarFieldValue phi_alpha 0.0
	volScalarFieldValue phi_beta 1.0 ); }
	boxToCell { box (-6 $y_0 $z_7) (64 $y_1 $z_8); fieldValues (
	volScalarFieldValue phi_alpha 0.0
	volScalarFieldValue phi_beta 1.0 ); }
	boxToCell { box (-6 $y_0 $z_8) (64 $y_1 $z_9); fieldValues (
	volScalarFieldValue phi_alpha 0.0
	volScalarFieldValue phi_beta 1.0 ); }
	boxToCell { box (-6 $y_0 $z_9) (64 $y_1 $z_10); fieldValues (
	volScalarFieldValue phi_alpha 1.0
	volScalarFieldValue phi_beta 0.0 ); }
	boxToCell { box (-6 $y_0 $z_10) (64 $y_1 $z_11); fieldValues (
	volScalarFieldValue phi_alpha 0.0
	volScalarFieldValue phi_beta 1.0 ); }
	boxToCell { box (-6 $y_0 $z_11) (64 $y_1 $z_12); fieldValues (
	volScalarFieldValue phi_alpha 1.0
	volScalarFieldValue phi_beta 0.0 ); }
	boxToCell { box (-6 $y_0 $z_12) (64 $y_1 $z_13); fieldValues (
	volScalarFieldValue phi_alpha 1.0
	volScalarFieldValue phi_beta 0.0 ); }
	boxToCell { box (-6 $y_0 $z_13) (64 $y_1 $z_14); fieldValues (
	volScalarFieldValue phi_alpha 1.0
	volScalarFieldValue phi_beta 0.0 ); }
	boxToCell { box (-6 $y_0 $z_14) (64 $y_1 $z_15); fieldValues (
	volScalarFieldValue phi_alpha 1.0
	volScalarFieldValue phi_beta 0.0 ); }
	boxToCell { box (-6 $y_0 $z_15) (64 $y_1 $z_16); fieldValues (
	volScalarFieldValue phi_alpha 1.0
	volScalarFieldValue phi_beta 0.0 ); }
	boxToCell { box (-6 $y_0 $z_16) (64 $y_1 $z_17); fieldValues (
	volScalarFieldValue phi_alpha 1.0
	volScalarFieldValue phi_beta 0.0 ); }
	boxToCell { box (-6 $y_0 $z_17) (64 $y_1 $z_18); fieldValues (
	volScalarFieldValue phi_alpha 0.0
	volScalarFieldValue phi_beta 1.0 ); }
	boxToCell { box (-6 $y_0 $z_18) (64 $y_1 $z_19); fieldValues (
	volScalarFieldValue phi_alpha 0.0
	volScalarFieldValue phi_beta 1.0 ); }
	boxToCell { box (-6 $y_0 $z_19) (64 $y_1 $z_20); fieldValues (
	volScalarFieldValue phi_alpha 1.0
	volScalarFieldValue phi_beta 0.0 ); }
	boxToCell { box (-6 $y_0 $z_20) (64 $y_1 $z_21); fieldValues (
	volScalarFieldValue phi_alpha 0.0
	volScalarFieldValue phi_beta 1.0 ); }
	boxToCell { box (-6 $y_0 $z_21) (64 $y_1 $z_22); fieldValues (
	volScalarFieldValue phi_alpha 1.0
	volScalarFieldValue phi_beta 0.0 ); }
	boxToCell { box (-6 $y_0 $z_22) (64 $y_1 $z_23); fieldValues (
	volScalarFieldValue phi_alpha 1.0
	volScalarFieldValue phi_beta 0.0 ); }
	boxToCell { box (-6 $y_0 $z_23) (64 $y_1 $z_24); fieldValues (
	volScalarFieldValue phi_alpha 0.0
	volScalarFieldValue phi_beta 1.0 ); }
	boxToCell { box (-6 $y_0 $z_24) (64 $y_1 $z_25); fieldValues (
	volScalarFieldValue phi_alpha 0.0
	volScalarFieldValue phi_beta 1.0 ); }
	boxToCell { box (-6 $y_0 $z_25) (64 $y_1 $z_26); fieldValues (
	volScalarFieldValue phi_alpha 0.0
	volScalarFieldValue phi_beta 1.0 ); }
	boxToCell { box (-6 $y_0 $z_26) (64 $y_1 $z_27); fieldValues (
	volScalarFieldValue phi_alpha 1.0
	volScalarFieldValue phi_beta 0.0 ); }
	boxToCell { box (-6 $y_0 $z_27) (64 $y_1 $z_28); fieldValues (
	volScalarFieldValue phi_alpha 1.0
	volScalarFieldValue phi_beta 0.0 ); }
	boxToCell { box (-6 $y_0 $z_28) (64 $y_1 $z_29); fieldValues (
	volScalarFieldValue phi_alpha 1.0
	volScalarFieldValue phi_beta 0.0 ); }
	boxToCell { box (-6 $y_0 $z_29) (64 $y_1 $z_30); fieldValues (
	volScalarFieldValue phi_alpha 1.0
	volScalarFieldValue phi_beta 0.0 ); }
	boxToCell { box (-6 $y_0 $z_30) (64 $y_1 $z_31); fieldValues (
	volScalarFieldValue phi_alpha 1.0
	volScalarFieldValue phi_beta 0.0 ); }
	boxToCell { box (-6 $y_0 $z_31) (64 $y_1 $z_32); fieldValues (
	volScalarFieldValue phi_alpha 1.0
	volScalarFieldValue phi_beta 0.0 ); }
	boxToCell { box (-6 $y_0 $z_32) (64 $y_1 $z_33); fieldValues (
	volScalarFieldValue phi_alpha 0.0
	volScalarFieldValue phi_beta 1.0 ); }
	boxToCell { box (-6 $y_0 $z_33) (64 $y_1 $z_34); fieldValues (
	volScalarFieldValue phi_alpha 1.0
	volScalarFieldValue phi_beta 0.0 ); }
	boxToCell { box (-6 $y_0 $z_34) (64 $y_1 $z_35); fieldValues (
	volScalarFieldValue phi_alpha 0.0
	volScalarFieldValue phi_beta 1.0 ); }
	boxToCell { box (-6 $y_0 $z_35) (64 $y_1 $z_36); fieldValues (
	volScalarFieldValue phi_alpha 1.0
	volScalarFieldValue phi_beta 0.0 ); }
	boxToCell { box (-6 $y_0 $z_36) (64 $y_1 $z_37); fieldValues (
	volScalarFieldValue phi_alpha 0.0
	volScalarFieldValue phi_beta 1.0 ); }
	boxToCell { box (-6 $y_0 $z_37) (64 $y_1 $z_38); fieldValues (
	volScalarFieldValue phi_alpha 1.0
	volScalarFieldValue phi_beta 0.0 ); }
	boxToCell { box (-6 $y_0 $z_38) (64 $y_1 $z_39); fieldValues (
	volScalarFieldValue phi_alpha 0.0
	volScalarFieldValue phi_beta 1.0 ); }
	boxToCell { box (-6 $y_0 $z_39) (64 $y_1 $z_40); fieldValues (
	volScalarFieldValue phi_alpha 0.0
	volScalarFieldValue phi_beta 1.0 ); }
	boxToCell { box (-6 $y_1 $z_0) (64 $y_2 $z_1); fieldValues (
	volScalarFieldValue phi_alpha 0.0
	volScalarFieldValue phi_beta 1.0 ); }
	boxToCell { box (-6 $y_1 $z_1) (64 $y_2 $z_2); fieldValues (
	volScalarFieldValue phi_alpha 0.0
	volScalarFieldValue phi_beta 1.0 ); }
	boxToCell { box (-6 $y_1 $z_2) (64 $y_2 $z_3); fieldValues (
	volScalarFieldValue phi_alpha 1.0
	volScalarFieldValue phi_beta 0.0 ); }
	boxToCell { box (-6 $y_1 $z_3) (64 $y_2 $z_4); fieldValues (
	volScalarFieldValue phi_alpha 1.0
	volScalarFieldValue phi_beta 0.0 ); }
	boxToCell { box (-6 $y_1 $z_4) (64 $y_2 $z_5); fieldValues (
	volScalarFieldValue phi_alpha 0.0
	volScalarFieldValue phi_beta 1.0 ); }
	boxToCell { box (-6 $y_1 $z_5) (64 $y_2 $z_6); fieldValues (
	volScalarFieldValue phi_alpha 0.0
	volScalarFieldValue phi_beta 1.0 ); }
	boxToCell { box (-6 $y_1 $z_6) (64 $y_2 $z_7); fieldValues (
	volScalarFieldValue phi_alpha 1.0
	volScalarFieldValue phi_beta 0.0 ); }
	boxToCell { box (-6 $y_1 $z_7) (64 $y_2 $z_8); fieldValues (
	volScalarFieldValue phi_alpha 0.0
	volScalarFieldValue phi_beta 1.0 ); }
	boxToCell { box (-6 $y_1 $z_8) (64 $y_2 $z_9); fieldValues (
	volScalarFieldValue phi_alpha 0.0
	volScalarFieldValue phi_beta 1.0 ); }
	boxToCell { box (-6 $y_1 $z_9) (64 $y_2 $z_10); fieldValues (
	volScalarFieldValue phi_alpha 1.0
	volScalarFieldValue phi_beta 0.0 ); }
	boxToCell { box (-6 $y_1 $z_10) (64 $y_2 $z_11); fieldValues (
	volScalarFieldValue phi_alpha 1.0
	volScalarFieldValue phi_beta 0.0 ); }
	boxToCell { box (-6 $y_1 $z_11) (64 $y_2 $z_12); fieldValues (
	volScalarFieldValue phi_alpha 0.0
	volScalarFieldValue phi_beta 1.0 ); }
	boxToCell { box (-6 $y_1 $z_12) (64 $y_2 $z_13); fieldValues (
	volScalarFieldValue phi_alpha 1.0
	volScalarFieldValue phi_beta 0.0 ); }
	boxToCell { box (-6 $y_1 $z_13) (64 $y_2 $z_14); fieldValues (
	volScalarFieldValue phi_alpha 1.0
	volScalarFieldValue phi_beta 0.0 ); }
	boxToCell { box (-6 $y_1 $z_14) (64 $y_2 $z_15); fieldValues (
	volScalarFieldValue phi_alpha 1.0
	volScalarFieldValue phi_beta 0.0 ); }
	boxToCell { box (-6 $y_1 $z_15) (64 $y_2 $z_16); fieldValues (
	volScalarFieldValue phi_alpha 1.0
	volScalarFieldValue phi_beta 0.0 ); }
	boxToCell { box (-6 $y_1 $z_16) (64 $y_2 $z_17); fieldValues (
	volScalarFieldValue phi_alpha 0.0
	volScalarFieldValue phi_beta 1.0 ); }
	boxToCell { box (-6 $y_1 $z_17) (64 $y_2 $z_18); fieldValues (
	volScalarFieldValue phi_alpha 0.0
	volScalarFieldValue phi_beta 1.0 ); }
	boxToCell { box (-6 $y_1 $z_18) (64 $y_2 $z_19); fieldValues (
	volScalarFieldValue phi_alpha 1.0
	volScalarFieldValue phi_beta 0.0 ); }
	boxToCell { box (-6 $y_1 $z_19) (64 $y_2 $z_20); fieldValues (
	volScalarFieldValue phi_alpha 0.0
	volScalarFieldValue phi_beta 1.0 ); }
	boxToCell { box (-6 $y_1 $z_20) (64 $y_2 $z_21); fieldValues (
	volScalarFieldValue phi_alpha 1.0
	volScalarFieldValue phi_beta 0.0 ); }
	boxToCell { box (-6 $y_1 $z_21) (64 $y_2 $z_22); fieldValues (
	volScalarFieldValue phi_alpha 0.0
	volScalarFieldValue phi_beta 1.0 ); }
	boxToCell { box (-6 $y_1 $z_22) (64 $y_2 $z_23); fieldValues (
	volScalarFieldValue phi_alpha 1.0
	volScalarFieldValue phi_beta 0.0 ); }
	boxToCell { box (-6 $y_1 $z_23) (64 $y_2 $z_24); fieldValues (
	volScalarFieldValue phi_alpha 0.0
	volScalarFieldValue phi_beta 1.0 ); }
	boxToCell { box (-6 $y_1 $z_24) (64 $y_2 $z_25); fieldValues (
	volScalarFieldValue phi_alpha 0.0
	volScalarFieldValue phi_beta 1.0 ); }
	boxToCell { box (-6 $y_1 $z_25) (64 $y_2 $z_26); fieldValues (
	volScalarFieldValue phi_alpha 1.0
	volScalarFieldValue phi_beta 0.0 ); }
	boxToCell { box (-6 $y_1 $z_26) (64 $y_2 $z_27); fieldValues (
	volScalarFieldValue phi_alpha 0.0
	volScalarFieldValue phi_beta 1.0 ); }
	boxToCell { box (-6 $y_1 $z_27) (64 $y_2 $z_28); fieldValues (
	volScalarFieldValue phi_alpha 1.0
	volScalarFieldValue phi_beta 0.0 ); }
	boxToCell { box (-6 $y_1 $z_28) (64 $y_2 $z_29); fieldValues (
	volScalarFieldValue phi_alpha 0.0
	volScalarFieldValue phi_beta 1.0 ); }
	boxToCell { box (-6 $y_1 $z_29) (64 $y_2 $z_30); fieldValues (
	volScalarFieldValue phi_alpha 1.0
	volScalarFieldValue phi_beta 0.0 ); }
	boxToCell { box (-6 $y_1 $z_30) (64 $y_2 $z_31); fieldValues (
	volScalarFieldValue phi_alpha 1.0
	volScalarFieldValue phi_beta 0.0 ); }
	boxToCell { box (-6 $y_1 $z_31) (64 $y_2 $z_32); fieldValues (
	volScalarFieldValue phi_alpha 0.0
	volScalarFieldValue phi_beta 1.0 ); }
	boxToCell { box (-6 $y_1 $z_32) (64 $y_2 $z_33); fieldValues (
	volScalarFieldValue phi_alpha 1.0
	volScalarFieldValue phi_beta 0.0 ); }
	boxToCell { box (-6 $y_1 $z_33) (64 $y_2 $z_34); fieldValues (
	volScalarFieldValue phi_alpha 1.0
	volScalarFieldValue phi_beta 0.0 ); }
	boxToCell { box (-6 $y_1 $z_34) (64 $y_2 $z_35); fieldValues (
	volScalarFieldValue phi_alpha 0.0
	volScalarFieldValue phi_beta 1.0 ); }
	boxToCell { box (-6 $y_1 $z_35) (64 $y_2 $z_36); fieldValues (
	volScalarFieldValue phi_alpha 0.0
	volScalarFieldValue phi_beta 1.0 ); }
	boxToCell { box (-6 $y_1 $z_36) (64 $y_2 $z_37); fieldValues (
	volScalarFieldValue phi_alpha 1.0
	volScalarFieldValue phi_beta 0.0 ); }
	boxToCell { box (-6 $y_1 $z_37) (64 $y_2 $z_38); fieldValues (
	volScalarFieldValue phi_alpha 1.0
	volScalarFieldValue phi_beta 0.0 ); }
	boxToCell { box (-6 $y_1 $z_38) (64 $y_2 $z_39); fieldValues (
	volScalarFieldValue phi_alpha 1.0
	volScalarFieldValue phi_beta 0.0 ); }
	boxToCell { box (-6 $y_1 $z_39) (64 $y_2 $z_40); fieldValues (
	volScalarFieldValue phi_alpha 0.0
	volScalarFieldValue phi_beta 1.0 ); }
	boxToCell { box (-6 $y_2 $z_0) (64 $y_3 $z_1); fieldValues (
	volScalarFieldValue phi_alpha 0.0
	volScalarFieldValue phi_beta 1.0 ); }
	boxToCell { box (-6 $y_2 $z_1) (64 $y_3 $z_2); fieldValues (
	volScalarFieldValue phi_alpha 0.0
	volScalarFieldValue phi_beta 1.0 ); }
	boxToCell { box (-6 $y_2 $z_2) (64 $y_3 $z_3); fieldValues (
	volScalarFieldValue phi_alpha 0.0
	volScalarFieldValue phi_beta 1.0 ); }
	boxToCell { box (-6 $y_2 $z_3) (64 $y_3 $z_4); fieldValues (
	volScalarFieldValue phi_alpha 1.0
	volScalarFieldValue phi_beta 0.0 ); }
	boxToCell { box (-6 $y_2 $z_4) (64 $y_3 $z_5); fieldValues (
	volScalarFieldValue phi_alpha 1.0
	volScalarFieldValue phi_beta 0.0 ); }
	boxToCell { box (-6 $y_2 $z_5) (64 $y_3 $z_6); fieldValues (
	volScalarFieldValue phi_alpha 1.0
	volScalarFieldValue phi_beta 0.0 ); }
	boxToCell { box (-6 $y_2 $z_6) (64 $y_3 $z_7); fieldValues (
	volScalarFieldValue phi_alpha 0.0
	volScalarFieldValue phi_beta 1.0 ); }
	boxToCell { box (-6 $y_2 $z_7) (64 $y_3 $z_8); fieldValues (
	volScalarFieldValue phi_alpha 1.0
	volScalarFieldValue phi_beta 0.0 ); }
	boxToCell { box (-6 $y_2 $z_8) (64 $y_3 $z_9); fieldValues (
	volScalarFieldValue phi_alpha 1.0
	volScalarFieldValue phi_beta 0.0 ); }
	boxToCell { box (-6 $y_2 $z_9) (64 $y_3 $z_10); fieldValues (
	volScalarFieldValue phi_alpha 0.0
	volScalarFieldValue phi_beta 1.0 ); }
	boxToCell { box (-6 $y_2 $z_10) (64 $y_3 $z_11); fieldValues (
	volScalarFieldValue phi_alpha 1.0
	volScalarFieldValue phi_beta 0.0 ); }
	boxToCell { box (-6 $y_2 $z_11) (64 $y_3 $z_12); fieldValues (
	volScalarFieldValue phi_alpha 1.0
	volScalarFieldValue phi_beta 0.0 ); }
	boxToCell { box (-6 $y_2 $z_12) (64 $y_3 $z_13); fieldValues (
	volScalarFieldValue phi_alpha 0.0
	volScalarFieldValue phi_beta 1.0 ); }
	boxToCell { box (-6 $y_2 $z_13) (64 $y_3 $z_14); fieldValues (
	volScalarFieldValue phi_alpha 1.0
	volScalarFieldValue phi_beta 0.0 ); }
	boxToCell { box (-6 $y_2 $z_14) (64 $y_3 $z_15); fieldValues (
	volScalarFieldValue phi_alpha 1.0
	volScalarFieldValue phi_beta 0.0 ); }
	boxToCell { box (-6 $y_2 $z_15) (64 $y_3 $z_16); fieldValues (
	volScalarFieldValue phi_alpha 0.0
	volScalarFieldValue phi_beta 1.0 ); }
	boxToCell { box (-6 $y_2 $z_16) (64 $y_3 $z_17); fieldValues (
	volScalarFieldValue phi_alpha 0.0
	volScalarFieldValue phi_beta 1.0 ); }
	boxToCell { box (-6 $y_2 $z_17) (64 $y_3 $z_18); fieldValues (
	volScalarFieldValue phi_alpha 1.0
	volScalarFieldValue phi_beta 0.0 ); }
	boxToCell { box (-6 $y_2 $z_18) (64 $y_3 $z_19); fieldValues (
	volScalarFieldValue phi_alpha 1.0
	volScalarFieldValue phi_beta 0.0 ); }
	boxToCell { box (-6 $y_2 $z_19) (64 $y_3 $z_20); fieldValues (
	volScalarFieldValue phi_alpha 0.0
	volScalarFieldValue phi_beta 1.0 ); }
	boxToCell { box (-6 $y_2 $z_20) (64 $y_3 $z_21); fieldValues (
	volScalarFieldValue phi_alpha 0.0
	volScalarFieldValue phi_beta 1.0 ); }
	boxToCell { box (-6 $y_2 $z_21) (64 $y_3 $z_22); fieldValues (
	volScalarFieldValue phi_alpha 0.0
	volScalarFieldValue phi_beta 1.0 ); }
	boxToCell { box (-6 $y_2 $z_22) (64 $y_3 $z_23); fieldValues (
	volScalarFieldValue phi_alpha 0.0
	volScalarFieldValue phi_beta 1.0 ); }
	boxToCell { box (-6 $y_2 $z_23) (64 $y_3 $z_24); fieldValues (
	volScalarFieldValue phi_alpha 0.0
	volScalarFieldValue phi_beta 1.0 ); }
	boxToCell { box (-6 $y_2 $z_24) (64 $y_3 $z_25); fieldValues (
	volScalarFieldValue phi_alpha 0.0
	volScalarFieldValue phi_beta 1.0 ); }
	boxToCell { box (-6 $y_2 $z_25) (64 $y_3 $z_26); fieldValues (
	volScalarFieldValue phi_alpha 1.0
	volScalarFieldValue phi_beta 0.0 ); }
	boxToCell { box (-6 $y_2 $z_26) (64 $y_3 $z_27); fieldValues (
	volScalarFieldValue phi_alpha 1.0
	volScalarFieldValue phi_beta 0.0 ); }
	boxToCell { box (-6 $y_2 $z_27) (64 $y_3 $z_28); fieldValues (
	volScalarFieldValue phi_alpha 1.0
	volScalarFieldValue phi_beta 0.0 ); }
	boxToCell { box (-6 $y_2 $z_28) (64 $y_3 $z_29); fieldValues (
	volScalarFieldValue phi_alpha 1.0
	volScalarFieldValue phi_beta 0.0 ); }
	boxToCell { box (-6 $y_2 $z_29) (64 $y_3 $z_30); fieldValues (
	volScalarFieldValue phi_alpha 0.0
	volScalarFieldValue phi_beta 1.0 ); }
	boxToCell { box (-6 $y_2 $z_30) (64 $y_3 $z_31); fieldValues (
	volScalarFieldValue phi_alpha 0.0
	volScalarFieldValue phi_beta 1.0 ); }
	boxToCell { box (-6 $y_2 $z_31) (64 $y_3 $z_32); fieldValues (
	volScalarFieldValue phi_alpha 0.0
	volScalarFieldValue phi_beta 1.0 ); }
	boxToCell { box (-6 $y_2 $z_32) (64 $y_3 $z_33); fieldValues (
	volScalarFieldValue phi_alpha 0.0
	volScalarFieldValue phi_beta 1.0 ); }
	boxToCell { box (-6 $y_2 $z_33) (64 $y_3 $z_34); fieldValues (
	volScalarFieldValue phi_alpha 1.0
	volScalarFieldValue phi_beta 0.0 ); }
	boxToCell { box (-6 $y_2 $z_34) (64 $y_3 $z_35); fieldValues (
	volScalarFieldValue phi_alpha 1.0
	volScalarFieldValue phi_beta 0.0 ); }
	boxToCell { box (-6 $y_2 $z_35) (64 $y_3 $z_36); fieldValues (
	volScalarFieldValue phi_alpha 0.0
	volScalarFieldValue phi_beta 1.0 ); }
	boxToCell { box (-6 $y_2 $z_36) (64 $y_3 $z_37); fieldValues (
	volScalarFieldValue phi_alpha 0.0
	volScalarFieldValue phi_beta 1.0 ); }
	boxToCell { box (-6 $y_2 $z_37) (64 $y_3 $z_38); fieldValues (
	volScalarFieldValue phi_alpha 1.0
	volScalarFieldValue phi_beta 0.0 ); }
	boxToCell { box (-6 $y_2 $z_38) (64 $y_3 $z_39); fieldValues (
	volScalarFieldValue phi_alpha 0.0
	volScalarFieldValue phi_beta 1.0 ); }
	boxToCell { box (-6 $y_2 $z_39) (64 $y_3 $z_40); fieldValues (
	volScalarFieldValue phi_alpha 0.0
	volScalarFieldValue phi_beta 1.0 ); }
	boxToCell { box (-6 $y_3 $z_0) (64 $y_4 $z_1); fieldValues (
	volScalarFieldValue phi_alpha 0.0
	volScalarFieldValue phi_beta 1.0 ); }
	boxToCell { box (-6 $y_3 $z_1) (64 $y_4 $z_2); fieldValues (
	volScalarFieldValue phi_alpha 0.0
	volScalarFieldValue phi_beta 1.0 ); }
	boxToCell { box (-6 $y_3 $z_2) (64 $y_4 $z_3); fieldValues (
	volScalarFieldValue phi_alpha 0.0
	volScalarFieldValue phi_beta 1.0 ); }
	boxToCell { box (-6 $y_3 $z_3) (64 $y_4 $z_4); fieldValues (
	volScalarFieldValue phi_alpha 1.0
	volScalarFieldValue phi_beta 0.0 ); }
	boxToCell { box (-6 $y_3 $z_4) (64 $y_4 $z_5); fieldValues (
	volScalarFieldValue phi_alpha 1.0
	volScalarFieldValue phi_beta 0.0 ); }
	boxToCell { box (-6 $y_3 $z_5) (64 $y_4 $z_6); fieldValues (
	volScalarFieldValue phi_alpha 0.0
	volScalarFieldValue phi_beta 1.0 ); }
	boxToCell { box (-6 $y_3 $z_6) (64 $y_4 $z_7); fieldValues (
	volScalarFieldValue phi_alpha 0.0
	volScalarFieldValue phi_beta 1.0 ); }
	boxToCell { box (-6 $y_3 $z_7) (64 $y_4 $z_8); fieldValues (
	volScalarFieldValue phi_alpha 1.0
	volScalarFieldValue phi_beta 0.0 ); }
	boxToCell { box (-6 $y_3 $z_8) (64 $y_4 $z_9); fieldValues (
	volScalarFieldValue phi_alpha 0.0
	volScalarFieldValue phi_beta 1.0 ); }
	boxToCell { box (-6 $y_3 $z_9) (64 $y_4 $z_10); fieldValues (
	volScalarFieldValue phi_alpha 0.0
	volScalarFieldValue phi_beta 1.0 ); }
	boxToCell { box (-6 $y_3 $z_10) (64 $y_4 $z_11); fieldValues (
	volScalarFieldValue phi_alpha 1.0
	volScalarFieldValue phi_beta 0.0 ); }
	boxToCell { box (-6 $y_3 $z_11) (64 $y_4 $z_12); fieldValues (
	volScalarFieldValue phi_alpha 1.0
	volScalarFieldValue phi_beta 0.0 ); }
	boxToCell { box (-6 $y_3 $z_12) (64 $y_4 $z_13); fieldValues (
	volScalarFieldValue phi_alpha 0.0
	volScalarFieldValue phi_beta 1.0 ); }
	boxToCell { box (-6 $y_3 $z_13) (64 $y_4 $z_14); fieldValues (
	volScalarFieldValue phi_alpha 1.0
	volScalarFieldValue phi_beta 0.0 ); }
	boxToCell { box (-6 $y_3 $z_14) (64 $y_4 $z_15); fieldValues (
	volScalarFieldValue phi_alpha 1.0
	volScalarFieldValue phi_beta 0.0 ); }
	boxToCell { box (-6 $y_3 $z_15) (64 $y_4 $z_16); fieldValues (
	volScalarFieldValue phi_alpha 1.0
	volScalarFieldValue phi_beta 0.0 ); }
	boxToCell { box (-6 $y_3 $z_16) (64 $y_4 $z_17); fieldValues (
	volScalarFieldValue phi_alpha 0.0
	volScalarFieldValue phi_beta 1.0 ); }
	boxToCell { box (-6 $y_3 $z_17) (64 $y_4 $z_18); fieldValues (
	volScalarFieldValue phi_alpha 0.0
	volScalarFieldValue phi_beta 1.0 ); }
	boxToCell { box (-6 $y_3 $z_18) (64 $y_4 $z_19); fieldValues (
	volScalarFieldValue phi_alpha 1.0
	volScalarFieldValue phi_beta 0.0 ); }
	boxToCell { box (-6 $y_3 $z_19) (64 $y_4 $z_20); fieldValues (
	volScalarFieldValue phi_alpha 1.0
	volScalarFieldValue phi_beta 0.0 ); }
	boxToCell { box (-6 $y_3 $z_20) (64 $y_4 $z_21); fieldValues (
	volScalarFieldValue phi_alpha 1.0
	volScalarFieldValue phi_beta 0.0 ); }
	boxToCell { box (-6 $y_3 $z_21) (64 $y_4 $z_22); fieldValues (
	volScalarFieldValue phi_alpha 0.0
	volScalarFieldValue phi_beta 1.0 ); }
	boxToCell { box (-6 $y_3 $z_22) (64 $y_4 $z_23); fieldValues (
	volScalarFieldValue phi_alpha 1.0
	volScalarFieldValue phi_beta 0.0 ); }
	boxToCell { box (-6 $y_3 $z_23) (64 $y_4 $z_24); fieldValues (
	volScalarFieldValue phi_alpha 0.0
	volScalarFieldValue phi_beta 1.0 ); }
	boxToCell { box (-6 $y_3 $z_24) (64 $y_4 $z_25); fieldValues (
	volScalarFieldValue phi_alpha 1.0
	volScalarFieldValue phi_beta 0.0 ); }
	boxToCell { box (-6 $y_3 $z_25) (64 $y_4 $z_26); fieldValues (
	volScalarFieldValue phi_alpha 1.0
	volScalarFieldValue phi_beta 0.0 ); }
	boxToCell { box (-6 $y_3 $z_26) (64 $y_4 $z_27); fieldValues (
	volScalarFieldValue phi_alpha 1.0
	volScalarFieldValue phi_beta 0.0 ); }
	boxToCell { box (-6 $y_3 $z_27) (64 $y_4 $z_28); fieldValues (
	volScalarFieldValue phi_alpha 1.0
	volScalarFieldValue phi_beta 0.0 ); }
	boxToCell { box (-6 $y_3 $z_28) (64 $y_4 $z_29); fieldValues (
	volScalarFieldValue phi_alpha 0.0
	volScalarFieldValue phi_beta 1.0 ); }
	boxToCell { box (-6 $y_3 $z_29) (64 $y_4 $z_30); fieldValues (
	volScalarFieldValue phi_alpha 0.0
	volScalarFieldValue phi_beta 1.0 ); }
	boxToCell { box (-6 $y_3 $z_30) (64 $y_4 $z_31); fieldValues (
	volScalarFieldValue phi_alpha 1.0
	volScalarFieldValue phi_beta 0.0 ); }
	boxToCell { box (-6 $y_3 $z_31) (64 $y_4 $z_32); fieldValues (
	volScalarFieldValue phi_alpha 1.0
	volScalarFieldValue phi_beta 0.0 ); }
	boxToCell { box (-6 $y_3 $z_32) (64 $y_4 $z_33); fieldValues (
	volScalarFieldValue phi_alpha 1.0
	volScalarFieldValue phi_beta 0.0 ); }
	boxToCell { box (-6 $y_3 $z_33) (64 $y_4 $z_34); fieldValues (
	volScalarFieldValue phi_alpha 0.0
	volScalarFieldValue phi_beta 1.0 ); }
	boxToCell { box (-6 $y_3 $z_34) (64 $y_4 $z_35); fieldValues (
	volScalarFieldValue phi_alpha 1.0
	volScalarFieldValue phi_beta 0.0 ); }
	boxToCell { box (-6 $y_3 $z_35) (64 $y_4 $z_36); fieldValues (
	volScalarFieldValue phi_alpha 0.0
	volScalarFieldValue phi_beta 1.0 ); }
	boxToCell { box (-6 $y_3 $z_36) (64 $y_4 $z_37); fieldValues (
	volScalarFieldValue phi_alpha 0.0
	volScalarFieldValue phi_beta 1.0 ); }
	boxToCell { box (-6 $y_3 $z_37) (64 $y_4 $z_38); fieldValues (
	volScalarFieldValue phi_alpha 0.0
	volScalarFieldValue phi_beta 1.0 ); }
	boxToCell { box (-6 $y_3 $z_38) (64 $y_4 $z_39); fieldValues (
	volScalarFieldValue phi_alpha 0.0
	volScalarFieldValue phi_beta 1.0 ); }
	boxToCell { box (-6 $y_3 $z_39) (64 $y_4 $z_40); fieldValues (
	volScalarFieldValue phi_alpha 1.0
	volScalarFieldValue phi_beta 0.0 ); }
	boxToCell { box (-6 $y_4 $z_0) (64 $y_5 $z_1); fieldValues (
	volScalarFieldValue phi_alpha 1.0
	volScalarFieldValue phi_beta 0.0 ); }
	boxToCell { box (-6 $y_4 $z_1) (64 $y_5 $z_2); fieldValues (
	volScalarFieldValue phi_alpha 1.0
	volScalarFieldValue phi_beta 0.0 ); }
	boxToCell { box (-6 $y_4 $z_2) (64 $y_5 $z_3); fieldValues (
	volScalarFieldValue phi_alpha 1.0
	volScalarFieldValue phi_beta 0.0 ); }
	boxToCell { box (-6 $y_4 $z_3) (64 $y_5 $z_4); fieldValues (
	volScalarFieldValue phi_alpha 0.0
	volScalarFieldValue phi_beta 1.0 ); }
	boxToCell { box (-6 $y_4 $z_4) (64 $y_5 $z_5); fieldValues (
	volScalarFieldValue phi_alpha 1.0
	volScalarFieldValue phi_beta 0.0 ); }
	boxToCell { box (-6 $y_4 $z_5) (64 $y_5 $z_6); fieldValues (
	volScalarFieldValue phi_alpha 0.0
	volScalarFieldValue phi_beta 1.0 ); }
	boxToCell { box (-6 $y_4 $z_6) (64 $y_5 $z_7); fieldValues (
	volScalarFieldValue phi_alpha 1.0
	volScalarFieldValue phi_beta 0.0 ); }
	boxToCell { box (-6 $y_4 $z_7) (64 $y_5 $z_8); fieldValues (
	volScalarFieldValue phi_alpha 1.0
	volScalarFieldValue phi_beta 0.0 ); }
	boxToCell { box (-6 $y_4 $z_8) (64 $y_5 $z_9); fieldValues (
	volScalarFieldValue phi_alpha 1.0
	volScalarFieldValue phi_beta 0.0 ); }
	boxToCell { box (-6 $y_4 $z_9) (64 $y_5 $z_10); fieldValues (
	volScalarFieldValue phi_alpha 0.0
	volScalarFieldValue phi_beta 1.0 ); }
	boxToCell { box (-6 $y_4 $z_10) (64 $y_5 $z_11); fieldValues (
	volScalarFieldValue phi_alpha 0.0
	volScalarFieldValue phi_beta 1.0 ); }
	boxToCell { box (-6 $y_4 $z_11) (64 $y_5 $z_12); fieldValues (
	volScalarFieldValue phi_alpha 1.0
	volScalarFieldValue phi_beta 0.0 ); }
	boxToCell { box (-6 $y_4 $z_12) (64 $y_5 $z_13); fieldValues (
	volScalarFieldValue phi_alpha 1.0
	volScalarFieldValue phi_beta 0.0 ); }
	boxToCell { box (-6 $y_4 $z_13) (64 $y_5 $z_14); fieldValues (
	volScalarFieldValue phi_alpha 1.0
	volScalarFieldValue phi_beta 0.0 ); }
	boxToCell { box (-6 $y_4 $z_14) (64 $y_5 $z_15); fieldValues (
	volScalarFieldValue phi_alpha 1.0
	volScalarFieldValue phi_beta 0.0 ); }
	boxToCell { box (-6 $y_4 $z_15) (64 $y_5 $z_16); fieldValues (
	volScalarFieldValue phi_alpha 0.0
	volScalarFieldValue phi_beta 1.0 ); }
	boxToCell { box (-6 $y_4 $z_16) (64 $y_5 $z_17); fieldValues (
	volScalarFieldValue phi_alpha 0.0
	volScalarFieldValue phi_beta 1.0 ); }
	boxToCell { box (-6 $y_4 $z_17) (64 $y_5 $z_18); fieldValues (
	volScalarFieldValue phi_alpha 0.0
	volScalarFieldValue phi_beta 1.0 ); }
	boxToCell { box (-6 $y_4 $z_18) (64 $y_5 $z_19); fieldValues (
	volScalarFieldValue phi_alpha 1.0
	volScalarFieldValue phi_beta 0.0 ); }
	boxToCell { box (-6 $y_4 $z_19) (64 $y_5 $z_20); fieldValues (
	volScalarFieldValue phi_alpha 1.0
	volScalarFieldValue phi_beta 0.0 ); }
	boxToCell { box (-6 $y_4 $z_20) (64 $y_5 $z_21); fieldValues (
	volScalarFieldValue phi_alpha 0.0
	volScalarFieldValue phi_beta 1.0 ); }
	boxToCell { box (-6 $y_4 $z_21) (64 $y_5 $z_22); fieldValues (
	volScalarFieldValue phi_alpha 1.0
	volScalarFieldValue phi_beta 0.0 ); }
	boxToCell { box (-6 $y_4 $z_22) (64 $y_5 $z_23); fieldValues (
	volScalarFieldValue phi_alpha 1.0
	volScalarFieldValue phi_beta 0.0 ); }
	boxToCell { box (-6 $y_4 $z_23) (64 $y_5 $z_24); fieldValues (
	volScalarFieldValue phi_alpha 1.0
	volScalarFieldValue phi_beta 0.0 ); }
	boxToCell { box (-6 $y_4 $z_24) (64 $y_5 $z_25); fieldValues (
	volScalarFieldValue phi_alpha 1.0
	volScalarFieldValue phi_beta 0.0 ); }
	boxToCell { box (-6 $y_4 $z_25) (64 $y_5 $z_26); fieldValues (
	volScalarFieldValue phi_alpha 0.0
	volScalarFieldValue phi_beta 1.0 ); }
	boxToCell { box (-6 $y_4 $z_26) (64 $y_5 $z_27); fieldValues (
	volScalarFieldValue phi_alpha 0.0
	volScalarFieldValue phi_beta 1.0 ); }
	boxToCell { box (-6 $y_4 $z_27) (64 $y_5 $z_28); fieldValues (
	volScalarFieldValue phi_alpha 0.0
	volScalarFieldValue phi_beta 1.0 ); }
	boxToCell { box (-6 $y_4 $z_28) (64 $y_5 $z_29); fieldValues (
	volScalarFieldValue phi_alpha 0.0
	volScalarFieldValue phi_beta 1.0 ); }