/*--------------------------------*- C++ -*----------------------------------*\
| =========                 |                                                 |
| \\      /  F ield         | OpenFOAM: The Open Source CFD Toolbox           |
|  \\    /   O peration     | Version:  4.0                                   |
|   \\  /    A nd           | Web:      www.OpenFOAM.org                      |
|    \\/     M anipulation  |                                                 |
\*---------------------------------------------------------------------------*/
FoamFile
{
    version     2.0;
    format      ascii;
    class       dictionary;
    location    "system";
    object      setFieldsDict;
}
// * * * * * * * * * * * * * * * * * * * * * * * * * * * * * * * * * * * * * //

defaultFieldValues
(
	volScalarFieldValue phi_alpha 0.0
	volScalarFieldValue phi_beta 0.0
	volScalarFieldValue phi_liq 0.0
	volScalarFieldValue T 1.0
	volScalarFieldValue mu 1.0

);

regions
(
	
	boxToCell
// boxToCell: work on all cells in a rectangular box defined with starting and end point coordinates
	{
	box (-6 -6 -6) (160 190 190);
// Box can be larger than domain; in general this avoids edge effects
	fieldValues
// NB: no semicolons at the end of the dictionary entries below!
	(
	volScalarFieldValue phi_alpha 1.0
	volScalarFieldValue phi_beta 0.0
	volScalarFieldValue phi_liq 0.0
	volScalarFieldValue T 1.0
	volScalarFieldValue mu 1.0
	);
	}

	cylinderToCell
    {
    p1 (-6 0 0) ;
    p2 (160 0 0);
	radius 92;

    fieldValues
    (
	volScalarFieldValue phi_alpha 0.0
	volScalarFieldValue phi_beta 1.0
	volScalarFieldValue phi_liq 0.0
	volScalarFieldValue T 1.0
	volScalarFieldValue mu 1.0
    );
    }

	cylinderToCell
    {
    p1 (-6 184 184) ;
    p2 (160 184 184);
	radius 92;

    fieldValues
    (
	volScalarFieldValue phi_alpha 0.0
	volScalarFieldValue phi_beta 1.0
	volScalarFieldValue phi_liq 0.0
	volScalarFieldValue T 1.0
	volScalarFieldValue mu 1.0
    );
    }

	boxToCell
// boxToCell: work on all cells in a rectangular box defined with starting and end point coordinates
	{
	box (160 -6 -6) (406 190 190);
// Box can be larger than domain; in general this avoids edge effects
	fieldValues
// NB: no semicolons at the end of the dictionary entries below!
	(
	volScalarFieldValue phi_alpha 0.0
	volScalarFieldValue phi_beta 0.0
	volScalarFieldValue phi_liq 1.0
	volScalarFieldValue T 1.0
	volScalarFieldValue mu 1.0
	);
	}
    

);


// ************************************************************************* //
