/*--------------------------------*- C++ -*----------------------------------*\
| =========                 |                                                 |
| \\      /  F ield         | OpenFOAM: The Open Source CFD Toolbox           |
|  \\    /   O peration     | Version:  4.0                                   |
|   \\  /    A nd           | Web:      www.OpenFOAM.org                      |
|    \\/     M anipulation  |                                                 |
\*---------------------------------------------------------------------------*/
FoamFile
{
    version     2.0;
    format      ascii;
    class       dictionary;
    location    "system";
    object      controlDict;
}
// * * * * * * * * * * * * * * * * * * * * * * * * * * * * * * * * * * * * * 
#include "../generatedInput"

application     phaseField;

startFrom       startTime; //latestTime;

startTime       $STARTTIME; //0; // the actual time i.e. runtime.value() or no. of iterations*deltaT

stopAt          endTime;

endTime         $NTIMESTEPS; //1e-3; //actual time = total_iterations*deltaT

deltaT          $DELTA_t; //2.0e-7;

writeControl    runTime;

writeInterval   $SAVET; //5.0e-6;

purgeWrite      0;

writeFormat     ascii;

writePrecision  6;

writeCompression off;

timeFormat      general;

timePrecision   6;

runTimeModifiable true;


// ************************************************************************* //
