/*--------------------------------*- C++ -*----------------------------------*\
| =========                 |                                                 |
| \\      /  F ield         | OpenFOAM: The Open Source CFD Toolbox           |
|  \\    /   O peration     | Version:  4.0                                   |
|   \\  /    A nd           | Web:      www.OpenFOAM.org                      |
|    \\/     M anipulation  |                                                 |
\*---------------------------------------------------------------------------*/
FoamFile
{
    version     2.0;
    format      ascii;
    class       dictionary;
    location    "system";
    object      setFieldsDict;
}
// * * * * * * * * * * * * * * * * * * * * * * * * * * * * * * * * * * * * * //

defaultFieldValues
(
   // volScalarFieldValue c 0.1
//     volScalarFieldValue phi 0.0
	volScalarFieldValue phi 0.0
	//volScalarFieldValue phi1 0.0
	//volScalarFieldValue phi2 0.0
    volScalarFieldValue T 1653
    volScalarFieldValue psi 0.0
//     volScalarFieldValue theta 0.002
);

regions
(
	
/*	boxToCell	// boxToCell: work on all cells in a rectangular box defined with starting and end point coordinates
	{
		box (0 0 -0.12) (500 24000 0.12);	// Box can be larger than domain; in general this avoids edge effects
		fieldValues					// NB: no semicolons at the end of the dictionary entries below!
		(
			//volScalarFieldValue c 1.0
			//volScalarFieldValue phi0 0.0
			//volScalarFieldValue phi1 1.0
			//volScalarFieldValue phi2 0.0
            volScalarFieldValue alpha 0.0
		);
	}*/
	
    boxToCell
    {
        //box (75 50 0) (125 150 1);
        box (0.003 0.0025 0) (0.007 0.0075 5e-5);

        fieldValues
        (
          volScalarFieldValue psi 1.0
          volScalarFieldValue T 1653
//             volScalarFieldValue mu_1 1.0
//             volScalarFieldValue mu_2 1.0
        );
    }
    boxToCell
    {
        //box (75 50 0) (125 70 1);
        box (0.003 0.0025 0) (0.007 0.0045 5e-5);

        fieldValues
        (
          volScalarFieldValue phi 1.0
//           volScalarFieldValue theta 1.5 
          volScalarFieldValue T 1653
//             volScalarFieldValue mu_1 1.0
//             volScalarFieldValue mu_2 1.0
        );
    }
	
//     cylinderToCell
//     {
//         p1 (100 100 0) ;
//         p2 (100 100 1);
// 	radius 30;
// 
//         fieldValues
//         (
// //             volScalarFieldValue phi   1.0
// // 	    volScalarFieldValue T     0.9
//             volScalarFieldValue psi   1.0		
//         );
//     }
//     cylinderToCell
//     {
//         p1 (100 100 0) ;
//         p2 (100 100 1);
// 	radius 40;
//         
//         fieldValues
//         (
//           volScalarFieldValue psi   1.0
//         );
//     }
    

);


// ************************************************************************* //
// regions (
// cylinderToCell {
// p1 (127 46 0);
// p2 (127 46 1);
// radius 1.000000e+01;
// fieldValues (
// volScalarFieldValue phi   1.000000e+00
// volScalarFieldValue mu_1  8.000000e-01
// volScalarFieldValue mu_2  1.200000e+00
// );
// }
// cylinderToCell {
// p1 (170 60 0);
// p2 (170 60 1);
// radius 1.000000e+01;
// fieldValues (
// volScalarFieldValue phi   1.000000e+00
// volScalarFieldValue mu_1  8.000000e-01
// volScalarFieldValue mu_2  1.200000e+00
// );
// }
// cylinderToCell {
// p1 (104 66 0);
// p2 (104 66 1);
// radius 1.000000e+01;
// fieldValues (
// volScalarFieldValue phi   1.000000e+00
// volScalarFieldValue mu_1  8.000000e-01
// volScalarFieldValue mu_2  1.200000e+00
// );
// }
// );
