/*--------------------------------*- C++ -*----------------------------------*\
| =========                 |                                                 |
| \\      /  F ield         | OpenFOAM: The Open Source CFD Toolbox           |
|  \\    /   O peration     | Version:  4.0                                   |
|   \\  /    A nd           | Web:      www.OpenFOAM.org                      |
|    \\/     M anipulation  |                                                 |
\*---------------------------------------------------------------------------*/
FoamFile
{
    version     2.0;
    format      ascii;
    class       dictionary;
    location    "system";
    object      fvSolution;
}
// * * * * * * * * * * * * * * * * * * * * * * * * * * * * * * * * * * * * * //


solvers
{
	mu
    {
        solver                   smoothSolver;
        preconditioner            DIC;
        smoother                symGaussSeidel;
        tolerance                1e-6;
        relTol                    0.0;
    }

	phi
    {
	    solver                    smoothSolver;
        preconditioner            DIC;
        smoother                symGaussSeidel;
        tolerance                1e-6;
        relTol                    0.0;
    }
}

SIMPLE
{
    nNonOrthogonalCorrectors 0;
}


// ************************************************************************* //
