/*--------------------------------*- C++ -*----------------------------------*\
| =========                 |                                                 |
| \\      /  F ield         | OpenFOAM: The Open Source CFD Toolbox           |
|  \\    /   O peration     | Version:  4.0                                   |
|   \\  /    A nd           | Web:      www.OpenFOAM.org                      |
|    \\/     M anipulation  |                                                 |
\*---------------------------------------------------------------------------*/
FoamFile
{
    version     2.0;
    format      ascii;
    class       dictionary;
    location    "system";
    object      setFieldsDict;
}
// * * * * * * * * * * * * * * * * * * * * * * * * * * * * * * * * * * * * * //

defaultFieldValues
(
	volScalarFieldValue phi 0.0
	volScalarFieldValue mu 1.0

);

regions
(
	
	cylinderToCell
    {
        p1 (0 0 00) ;
        p2 (0 0 200);
	radius 120;

        fieldValues
        (
            volScalarFieldValue phi 1.0
	        volScalarFieldValue mu 0.689
        );
    }
    

);


// ************************************************************************* //
