/*--------------------------------*- C++ -*----------------------------------*\
| =========                 |                                                 |
| \\      /  F ield         | OpenFOAM: The Open Source CFD Toolbox           |
|  \\    /   O peration     | Version:  4.0                                   |
|   \\  /    A nd           | Web:      www.OpenFOAM.org                      |
|    \\/     M anipulation  |                                                 |
\*---------------------------------------------------------------------------*/
FoamFile
{
    version     2.0;
    format      ascii;
    class       volVectorField;
    object      D;
}
// * * * * * * * * * * * * * * * * * * * * * * * * * * * * * * * * * * * * * //

dimensions      [0 1 0 0 0 0 0];

internalField   uniform (0 0 0);

//============== NO-FLUX BOUNDARY CONDITIONS ====================//

boundaryField
{
    posXBound
    {
        type            zeroGradient;
    }
    negXBound
    {
        type            zeroGradient;
    }
    posYBound
    {
        type            zeroGradient;
    }
    negYBound
    {
        type            zeroGradient;
    }
    posZBound
    {
        type            zeroGradient;
    }
    negZBound
    {
        type            zeroGradient;
    }
}

//============== CYCLIC BOUNDARY CONDITIONS ====================//
/*
boundaryField
{
    posXBound
    {
        type            cyclic;
    }
    negXBound
    {
        type            cyclic;
    }
    posYBound
    {
        type            cyclic;
    }
    negYBound
    {
        type            cyclic;
    }
    posZBound
    {
        type            empty;
    }
    negZBound
    {
        type            empty;
    }
}
*/


// ************************************************************************* //
